* NGSPICE file created from heichips25_systolicArrayTop.ext - technology: ihp-sg13g2

* Black-box entry subcircuit for sg13g2_and2_1 abstract view
.subckt sg13g2_and2_1 A B X VDD VSS
.ends

* Black-box entry subcircuit for sg13g2_fill_1 abstract view
.subckt sg13g2_fill_1 VDD VSS
.ends

* Black-box entry subcircuit for sg13g2_inv_1 abstract view
.subckt sg13g2_inv_1 VDD Y A VSS
.ends

* Black-box entry subcircuit for sg13g2_decap_8 abstract view
.subckt sg13g2_decap_8 VDD VSS
.ends

* Black-box entry subcircuit for sg13g2_o21ai_1 abstract view
.subckt sg13g2_o21ai_1 B1 VDD Y VSS A1 A2
.ends

* Black-box entry subcircuit for sg13g2_nand3_1 abstract view
.subckt sg13g2_nand3_1 B C A Y VDD VSS
.ends

* Black-box entry subcircuit for sg13g2_xor2_1 abstract view
.subckt sg13g2_xor2_1 B A X VDD VSS
.ends

* Black-box entry subcircuit for sg13g2_nand2_1 abstract view
.subckt sg13g2_nand2_1 Y A B VDD VSS
.ends

* Black-box entry subcircuit for sg13g2_nor2_1 abstract view
.subckt sg13g2_nor2_1 A B Y VDD VSS
.ends

* Black-box entry subcircuit for sg13g2_dlygate4sd3_1 abstract view
.subckt sg13g2_dlygate4sd3_1 A VDD VSS X
.ends

* Black-box entry subcircuit for sg13g2_tiehi abstract view
.subckt sg13g2_tiehi VDD VSS L_HI
.ends

* Black-box entry subcircuit for sg13g2_fill_2 abstract view
.subckt sg13g2_fill_2 VDD VSS
.ends

* Black-box entry subcircuit for sg13g2_decap_4 abstract view
.subckt sg13g2_decap_4 VDD VSS
.ends

* Black-box entry subcircuit for sg13g2_a21oi_1 abstract view
.subckt sg13g2_a21oi_1 VSS VDD A1 A2 Y B1
.ends

* Black-box entry subcircuit for sg13g2_nand2b_1 abstract view
.subckt sg13g2_nand2b_1 Y B A_N VDD VSS
.ends

* Black-box entry subcircuit for sg13g2_a21o_1 abstract view
.subckt sg13g2_a21o_1 A2 A1 B1 X VDD VSS
.ends

* Black-box entry subcircuit for sg13g2_dfrbpq_2 abstract view
.subckt sg13g2_dfrbpq_2 RESET_B VSS VDD D Q CLK
.ends

* Black-box entry subcircuit for sg13g2_or3_1 abstract view
.subckt sg13g2_or3_1 A B C X VDD VSS
.ends

* Black-box entry subcircuit for sg13g2_xnor2_1 abstract view
.subckt sg13g2_xnor2_1 Y A B VDD VSS
.ends

* Black-box entry subcircuit for sg13g2_and3_2 abstract view
.subckt sg13g2_and3_2 X A B C VDD VSS
.ends

* Black-box entry subcircuit for sg13g2_buf_8 abstract view
.subckt sg13g2_buf_8 A X VDD VSS
.ends

* Black-box entry subcircuit for sg13g2_nor2b_1 abstract view
.subckt sg13g2_nor2b_1 A B_N Y VDD VSS
.ends

* Black-box entry subcircuit for sg13g2_nor3_2 abstract view
.subckt sg13g2_nor3_2 A B C Y VDD VSS
.ends

* Black-box entry subcircuit for sg13g2_and3_1 abstract view
.subckt sg13g2_and3_1 X A B C VDD VSS
.ends

* Black-box entry subcircuit for sg13g2_a21oi_2 abstract view
.subckt sg13g2_a21oi_2 VSS VDD B1 Y A2 A1
.ends

* Black-box entry subcircuit for sg13g2_nor3_1 abstract view
.subckt sg13g2_nor3_1 A B C Y VDD VSS
.ends

* Black-box entry subcircuit for sg13g2_dfrbpq_1 abstract view
.subckt sg13g2_dfrbpq_1 RESET_B VSS VDD D Q CLK
.ends

* Black-box entry subcircuit for sg13g2_mux2_1 abstract view
.subckt sg13g2_mux2_1 A0 A1 S X VDD VSS
.ends

* Black-box entry subcircuit for sg13g2_mux4_1 abstract view
.subckt sg13g2_mux4_1 S0 A0 A1 A2 A3 S1 X VDD VSS
.ends

* Black-box entry subcircuit for sg13g2_buf_1 abstract view
.subckt sg13g2_buf_1 A X VDD VSS
.ends

* Black-box entry subcircuit for sg13g2_nor2b_2 abstract view
.subckt sg13g2_nor2b_2 A B_N Y VDD VSS
.ends

* Black-box entry subcircuit for sg13g2_a21o_2 abstract view
.subckt sg13g2_a21o_2 A2 A1 B1 X VDD VSS
.ends

* Black-box entry subcircuit for sg13g2_or2_1 abstract view
.subckt sg13g2_or2_1 VSS VDD X B A
.ends

* Black-box entry subcircuit for sg13g2_nand4_1 abstract view
.subckt sg13g2_nand4_1 B C A Y VDD VSS D
.ends

* Black-box entry subcircuit for sg13g2_inv_2 abstract view
.subckt sg13g2_inv_2 Y A VDD VSS
.ends

* Black-box entry subcircuit for sg13g2_a221oi_1 abstract view
.subckt sg13g2_a221oi_1 VDD VSS B2 C1 B1 A1 Y A2
.ends

* Black-box entry subcircuit for sg13g2_nand2_2 abstract view
.subckt sg13g2_nand2_2 Y A B VDD VSS
.ends

* Black-box entry subcircuit for sg13g2_inv_8 abstract view
.subckt sg13g2_inv_8 Y A VDD VSS
.ends

* Black-box entry subcircuit for sg13g2_nand2b_2 abstract view
.subckt sg13g2_nand2b_2 Y B VDD VSS A_N
.ends

* Black-box entry subcircuit for sg13g2_nor2_2 abstract view
.subckt sg13g2_nor2_2 A B Y VDD VSS
.ends

* Black-box entry subcircuit for sg13g2_buf_2 abstract view
.subckt sg13g2_buf_2 A X VDD VSS
.ends

* Black-box entry subcircuit for sg13g2_a22oi_1 abstract view
.subckt sg13g2_a22oi_1 Y B1 B2 A2 A1 VDD VSS
.ends

* Black-box entry subcircuit for sg13g2_tielo abstract view
.subckt sg13g2_tielo VDD VSS L_LO
.ends

* Black-box entry subcircuit for sg13g2_nand3b_1 abstract view
.subckt sg13g2_nand3b_1 B C Y VDD VSS A_N
.ends

* Black-box entry subcircuit for sg13g2_nor4_1 abstract view
.subckt sg13g2_nor4_1 A B C D Y VDD VSS
.ends

* Black-box entry subcircuit for sg13g2_inv_4 abstract view
.subckt sg13g2_inv_4 A Y VDD VSS
.ends

* Black-box entry subcircuit for sg13g2_and4_1 abstract view
.subckt sg13g2_and4_1 A B C D X VDD VSS
.ends

.subckt heichips25_systolicArrayTop VGND VPWR clk ena rst_n ui_in[0] ui_in[1] ui_in[2]
+ ui_in[3] ui_in[4] ui_in[5] ui_in[6] ui_in[7] uio_in[0] uio_in[1] uio_in[2] uio_in[3]
+ uio_in[4] uio_in[5] uio_in[6] uio_in[7] uio_oe[0] uio_oe[1] uio_oe[2] uio_oe[3]
+ uio_oe[4] uio_oe[5] uio_oe[6] uio_oe[7] uio_out[0] uio_out[1] uio_out[2] uio_out[3]
+ uio_out[4] uio_out[5] uio_out[6] uio_out[7] uo_out[0] uo_out[1] uo_out[2] uo_out[3]
+ uo_out[4] uo_out[5] uo_out[6] uo_out[7]
X_3155_ net541 net496 _2596_ VPWR VGND sg13g2_and2_1
XFILLER_39_299 VPWR VGND sg13g2_fill_1
X_3086_ VPWR _2527_ net522 VGND sg13g2_inv_1
XFILLER_35_450 VPWR VGND sg13g2_fill_1
XFILLER_36_951 VPWR VGND sg13g2_decap_8
X_3988_ _0959_ VPWR _0963_ VGND _0945_ _0960_ sg13g2_o21ai_1
XFILLER_11_829 VPWR VGND sg13g2_fill_1
X_5727_ net716 _2490_ net615 _2492_ VPWR VGND sg13g2_nand3_1
X_5658_ _2445_ mydesign.accum\[6\] _2446_ VPWR VGND sg13g2_xor2_1
X_5589_ _2381_ _2374_ _2380_ VPWR VGND sg13g2_nand2_1
X_4609_ net550 mydesign.inputs\[2\]\[16\] _1515_ VPWR VGND sg13g2_nor2_1
Xhold351 mydesign.accum\[11\] VPWR VGND net970 sg13g2_dlygate4sd3_1
Xhold362 mydesign.pe_inputs\[42\] VPWR VGND net981 sg13g2_dlygate4sd3_1
Xhold340 mydesign.accum\[58\] VPWR VGND net959 sg13g2_dlygate4sd3_1
Xhold384 mydesign.accum\[88\] VPWR VGND net1003 sg13g2_dlygate4sd3_1
X_5993__138 VPWR VGND net138 sg13g2_tiehi
Xhold395 _0232_ VPWR VGND net1014 sg13g2_dlygate4sd3_1
Xhold373 mydesign.accum\[19\] VPWR VGND net992 sg13g2_dlygate4sd3_1
XFILLER_46_726 VPWR VGND sg13g2_decap_8
XFILLER_45_247 VPWR VGND sg13g2_fill_1
XFILLER_26_41 VPWR VGND sg13g2_fill_2
XFILLER_27_962 VPWR VGND sg13g2_decap_8
XFILLER_42_954 VPWR VGND sg13g2_decap_8
XFILLER_14_645 VPWR VGND sg13g2_decap_4
XFILLER_41_486 VPWR VGND sg13g2_fill_1
XFILLER_10_840 VPWR VGND sg13g2_decap_8
XFILLER_6_822 VPWR VGND sg13g2_fill_2
X_5913__331 VPWR VGND net331 sg13g2_tiehi
X_4960_ _1815_ mydesign.pe_weights\[37\] mydesign.pe_inputs\[26\] VPWR VGND sg13g2_nand2_1
XFILLER_18_995 VPWR VGND sg13g2_decap_8
XFILLER_33_910 VPWR VGND sg13g2_decap_8
X_4891_ _1764_ net697 _1762_ VPWR VGND sg13g2_nand2_1
X_3911_ _0897_ _0883_ _0899_ VPWR VGND sg13g2_xor2_1
X_3842_ VGND VPWR net572 _0832_ _0126_ _0833_ sg13g2_a21oi_1
XFILLER_20_604 VPWR VGND sg13g2_fill_2
XFILLER_33_987 VPWR VGND sg13g2_decap_8
X_3773_ net622 VPWR _0775_ VGND net1076 net433 sg13g2_o21ai_1
X_5512_ _2314_ _2313_ _2312_ VPWR VGND sg13g2_nand2b_1
X_5443_ net477 VPWR _2249_ VGND net729 _2248_ sg13g2_o21ai_1
X_5374_ _2188_ mydesign.pe_inputs\[15\] mydesign.pe_weights\[25\] VPWR VGND sg13g2_nand2_1
X_4325_ net479 VPWR _1266_ VGND net580 net951 sg13g2_o21ai_1
X_4256_ _1198_ _1195_ _1200_ VPWR VGND sg13g2_xor2_1
X_4187_ _1144_ _1143_ _1141_ VPWR VGND sg13g2_nand2b_1
X_3207_ _2636_ VPWR _0011_ VGND _2518_ _2633_ sg13g2_o21ai_1
XFILLER_28_715 VPWR VGND sg13g2_fill_2
X_3138_ VPWR _2579_ net757 VGND sg13g2_inv_1
XFILLER_43_718 VPWR VGND sg13g2_decap_8
XFILLER_28_759 VPWR VGND sg13g2_fill_1
XFILLER_10_147 VPWR VGND sg13g2_fill_1
Xhold170 mydesign.pe_weights\[43\] VPWR VGND net789 sg13g2_dlygate4sd3_1
Xhold181 mydesign.inputs\[1\]\[11\] VPWR VGND net800 sg13g2_dlygate4sd3_1
Xhold192 mydesign.pe_weights\[45\] VPWR VGND net811 sg13g2_dlygate4sd3_1
XFILLER_46_501 VPWR VGND sg13g2_fill_2
XFILLER_15_965 VPWR VGND sg13g2_decap_8
XFILLER_30_913 VPWR VGND sg13g2_decap_8
XFILLER_42_784 VPWR VGND sg13g2_decap_8
XFILLER_41_261 VPWR VGND sg13g2_decap_4
XFILLER_6_663 VPWR VGND sg13g2_fill_2
XFILLER_6_652 VPWR VGND sg13g2_fill_1
XFILLER_5_151 VPWR VGND sg13g2_decap_8
X_4110_ _1046_ mydesign.pe_weights\[61\] mydesign.accum\[89\] _1071_ VPWR VGND sg13g2_a21o_1
X_5090_ _1931_ _1924_ _1933_ VPWR VGND sg13g2_xor2_1
XFILLER_25_1008 VPWR VGND sg13g2_decap_8
X_4041_ _0991_ VPWR _1014_ VGND _0990_ _0993_ sg13g2_o21ai_1
XFILLER_49_383 VPWR VGND sg13g2_decap_8
X_5992_ net142 VGND VPWR net953 mydesign.pe_weights\[30\] clknet_leaf_7_clk sg13g2_dfrbpq_2
X_4943_ mydesign.pe_weights\[38\] net528 mydesign.accum\[42\] _1799_ VPWR VGND sg13g2_nand3_1
XFILLER_21_902 VPWR VGND sg13g2_fill_1
X_4874_ _1749_ _1748_ _1750_ VPWR VGND sg13g2_xor2_1
XFILLER_21_946 VPWR VGND sg13g2_decap_8
X_3825_ VGND VPWR net572 _0816_ _0125_ _0817_ sg13g2_a21oi_1
X_3756_ _0763_ _0755_ _0760_ VPWR VGND sg13g2_nand2_1
X_5426_ _2236_ _2237_ _0306_ VPWR VGND sg13g2_nor2_1
X_3687_ _0690_ _0696_ _0697_ _0698_ VPWR VGND sg13g2_or3_1
XFILLER_0_817 VPWR VGND sg13g2_decap_8
X_5357_ mydesign.pe_inputs\[12\] net527 mydesign.accum\[19\] _2172_ VPWR VGND sg13g2_nand3_1
X_4308_ VGND VPWR net579 _1248_ _0176_ _1249_ sg13g2_a21oi_1
X_5288_ _2116_ _2113_ _2114_ VPWR VGND sg13g2_xnor2_1
X_4239_ _1184_ mydesign.accum\[81\] mydesign.pe_weights\[57\] net536 VPWR VGND sg13g2_and3_2
Xheichips25_systolicArrayTop_403 VPWR VGND uio_oe[4] sg13g2_tiehi
XFILLER_43_515 VPWR VGND sg13g2_decap_4
XFILLER_11_423 VPWR VGND sg13g2_fill_2
XFILLER_12_935 VPWR VGND sg13g2_decap_8
XFILLER_24_784 VPWR VGND sg13g2_fill_1
XFILLER_7_427 VPWR VGND sg13g2_decap_4
XFILLER_23_75 VPWR VGND sg13g2_fill_2
XFILLER_2_198 VPWR VGND sg13g2_fill_1
XFILLER_38_309 VPWR VGND sg13g2_fill_2
XFILLER_47_810 VPWR VGND sg13g2_decap_8
Xfanout491 net494 net491 VPWR VGND sg13g2_buf_8
Xfanout480 net482 net480 VPWR VGND sg13g2_buf_8
XFILLER_47_887 VPWR VGND sg13g2_decap_8
XFILLER_46_375 VPWR VGND sg13g2_fill_2
XFILLER_15_740 VPWR VGND sg13g2_fill_2
XFILLER_9_44 VPWR VGND sg13g2_fill_2
X_3610_ _0633_ _0629_ _0632_ VPWR VGND sg13g2_xnor2_1
X_4590_ mydesign.pe_inputs\[39\] mydesign.pe_weights\[51\] mydesign.accum\[70\] _1498_
+ VPWR VGND sg13g2_a21o_1
X_3541_ _0568_ _0545_ _0567_ VPWR VGND sg13g2_nand2_1
X_3472_ net627 VPWR _0508_ VGND net1086 net436 sg13g2_o21ai_1
X_5211_ _2043_ _2025_ _2041_ VPWR VGND sg13g2_xnor2_1
X_5142_ mydesign.pe_inputs\[23\] mydesign.pe_weights\[35\] mydesign.accum\[38\] _1982_
+ VPWR VGND sg13g2_a21o_1
XFILLER_38_821 VPWR VGND sg13g2_fill_1
X_5073_ _1917_ _1899_ _1916_ VPWR VGND sg13g2_nand2_1
X_4024_ _0998_ _0997_ _0987_ VPWR VGND sg13g2_nand2b_1
XFILLER_40_507 VPWR VGND sg13g2_decap_8
X_5975_ net207 VGND VPWR _0201_ mydesign.pe_weights\[33\] clknet_leaf_38_clk sg13g2_dfrbpq_2
X_4926_ VGND VPWR _2533_ net449 _0259_ _1784_ sg13g2_a21oi_1
XFILLER_33_581 VPWR VGND sg13g2_decap_4
X_4857_ _1732_ _1733_ _1734_ VPWR VGND sg13g2_nor2b_1
X_3808_ _0393_ _0801_ _0802_ _0803_ VPWR VGND sg13g2_nor3_2
X_4788_ _1668_ mydesign.pe_weights\[40\] mydesign.pe_inputs\[30\] VPWR VGND sg13g2_nand2_1
X_3739_ VGND VPWR mydesign.pe_inputs\[63\] _0658_ _0747_ mydesign.accum\[118\] sg13g2_a21oi_1
X_5409_ _2222_ _2202_ _2205_ _2221_ VPWR VGND sg13g2_and3_1
XFILLER_0_636 VPWR VGND sg13g2_decap_8
X_5849__71 VPWR VGND net71 sg13g2_tiehi
XFILLER_48_629 VPWR VGND sg13g2_decap_8
XFILLER_29_810 VPWR VGND sg13g2_fill_1
XFILLER_44_813 VPWR VGND sg13g2_decap_8
XFILLER_43_301 VPWR VGND sg13g2_decap_8
XFILLER_18_64 VPWR VGND sg13g2_fill_1
XFILLER_18_86 VPWR VGND sg13g2_decap_4
XFILLER_31_518 VPWR VGND sg13g2_fill_2
XFILLER_34_63 VPWR VGND sg13g2_decap_8
XFILLER_15_1007 VPWR VGND sg13g2_decap_8
XFILLER_12_798 VPWR VGND sg13g2_fill_1
XFILLER_8_769 VPWR VGND sg13g2_fill_2
XFILLER_11_286 VPWR VGND sg13g2_decap_4
XFILLER_7_268 VPWR VGND sg13g2_fill_1
XFILLER_4_997 VPWR VGND sg13g2_decap_8
X_5855__63 VPWR VGND net63 sg13g2_tiehi
X_5870__33 VPWR VGND net33 sg13g2_tiehi
XFILLER_47_684 VPWR VGND sg13g2_decap_8
XFILLER_19_375 VPWR VGND sg13g2_fill_2
XFILLER_35_813 VPWR VGND sg13g2_fill_2
XFILLER_46_194 VPWR VGND sg13g2_decap_4
XFILLER_15_581 VPWR VGND sg13g2_decap_4
X_5760_ net615 VPWR _2510_ VGND _2591_ _1400_ sg13g2_o21ai_1
X_5691_ VGND VPWR net512 net457 _2471_ _2468_ sg13g2_a21oi_1
X_4711_ _1603_ _1595_ _1605_ VPWR VGND sg13g2_xor2_1
X_4642_ VGND VPWR _2550_ net437 _0218_ _1541_ sg13g2_a21oi_1
X_4573_ _1482_ _1480_ _1481_ VPWR VGND sg13g2_nand2_1
X_3524_ _0552_ _0534_ _0550_ VPWR VGND sg13g2_xnor2_1
X_3455_ _0495_ VPWR _0077_ VGND net602 _0492_ sg13g2_o21ai_1
X_3386_ VGND VPWR _0433_ _0434_ net514 mydesign.accum\[2\] sg13g2_a21oi_2
X_5125_ mydesign.pe_inputs\[23\] net530 mydesign.accum\[37\] _1966_ VPWR VGND sg13g2_a21o_1
X_5056_ _1899_ _1900_ _1901_ VPWR VGND sg13g2_nor2b_1
XFILLER_38_673 VPWR VGND sg13g2_fill_2
X_4007_ _0964_ _0980_ _0981_ _0982_ VPWR VGND sg13g2_nor3_1
XFILLER_26_802 VPWR VGND sg13g2_decap_8
XFILLER_26_824 VPWR VGND sg13g2_fill_1
XFILLER_38_1007 VPWR VGND sg13g2_decap_8
X_5958_ net241 VGND VPWR _0184_ mydesign.pe_weights\[36\] clknet_leaf_32_clk sg13g2_dfrbpq_2
X_4909_ net612 VPWR _1776_ VGND net820 _1767_ sg13g2_o21ai_1
X_5889_ net374 VGND VPWR net708 mydesign.weights\[3\]\[7\] clknet_leaf_49_clk sg13g2_dfrbpq_1
XFILLER_1_901 VPWR VGND sg13g2_decap_8
XFILLER_0_400 VPWR VGND sg13g2_decap_8
XFILLER_49_916 VPWR VGND sg13g2_decap_8
XFILLER_1_978 VPWR VGND sg13g2_decap_8
XFILLER_0_488 VPWR VGND sg13g2_fill_1
Xhold41 mydesign.weights\[2\]\[9\] VPWR VGND net660 sg13g2_dlygate4sd3_1
Xhold30 mydesign.weights\[1\]\[19\] VPWR VGND net649 sg13g2_dlygate4sd3_1
XFILLER_48_437 VPWR VGND sg13g2_fill_1
Xhold52 mydesign.inputs\[3\]\[6\] VPWR VGND net671 sg13g2_dlygate4sd3_1
Xhold63 mydesign.inputs\[2\]\[17\] VPWR VGND net682 sg13g2_dlygate4sd3_1
Xhold74 mydesign.weights\[1\]\[21\] VPWR VGND net693 sg13g2_dlygate4sd3_1
XFILLER_29_85 VPWR VGND sg13g2_fill_2
Xhold85 mydesign.inputs\[2\]\[6\] VPWR VGND net704 sg13g2_dlygate4sd3_1
Xhold96 _0355_ VPWR VGND net715 sg13g2_dlygate4sd3_1
XFILLER_17_846 VPWR VGND sg13g2_decap_4
XFILLER_17_857 VPWR VGND sg13g2_fill_1
XFILLER_28_161 VPWR VGND sg13g2_fill_2
XFILLER_45_62 VPWR VGND sg13g2_decap_8
XFILLER_44_687 VPWR VGND sg13g2_decap_8
XFILLER_31_348 VPWR VGND sg13g2_fill_2
XFILLER_40_882 VPWR VGND sg13g2_decap_8
X_3240_ net608 net611 _2660_ VPWR VGND sg13g2_nor2_1
X_3171_ _2609_ VPWR _0001_ VGND net432 _2610_ sg13g2_o21ai_1
XFILLER_48_993 VPWR VGND sg13g2_decap_8
X_5812_ net130 VGND VPWR _0038_ mydesign.inputs\[1\]\[17\] clknet_leaf_14_clk sg13g2_dfrbpq_1
X_5743_ _2501_ net748 _2500_ VPWR VGND sg13g2_nand2_1
X_6005__74 VPWR VGND net74 sg13g2_tiehi
XFILLER_31_860 VPWR VGND sg13g2_fill_1
X_5923__311 VPWR VGND net311 sg13g2_tiehi
X_5674_ VGND VPWR net409 _2459_ _0331_ _2460_ sg13g2_a21oi_1
X_4625_ mydesign.inputs\[2\]\[10\] mydesign.inputs\[2\]\[6\] net550 _1529_ VPWR VGND
+ sg13g2_mux2_1
X_4556_ _1466_ _1460_ _1465_ VPWR VGND sg13g2_nand2_1
XFILLER_2_709 VPWR VGND sg13g2_decap_4
X_3507_ net455 _0517_ net721 _0536_ VPWR VGND sg13g2_nand3_1
X_4487_ _1406_ net666 _1402_ VPWR VGND sg13g2_nand2_1
X_3438_ VGND VPWR _0412_ _0480_ _0481_ _2698_ sg13g2_a21oi_1
X_3369_ net513 mydesign.accum\[97\] mydesign.accum\[65\] mydesign.accum\[33\] mydesign.accum\[1\]
+ net506 _0418_ VPWR VGND sg13g2_mux4_1
XFILLER_46_908 VPWR VGND sg13g2_decap_8
X_5108_ _1950_ _1943_ _1949_ VPWR VGND sg13g2_nand2_1
X_6088_ net380 VGND VPWR net1039 mydesign.accum\[10\] clknet_leaf_33_clk sg13g2_dfrbpq_2
X_5039_ VGND VPWR net583 _1888_ _0267_ _1889_ sg13g2_a21oi_1
XFILLER_15_54 VPWR VGND sg13g2_fill_2
XFILLER_22_871 VPWR VGND sg13g2_decap_8
XFILLER_5_547 VPWR VGND sg13g2_fill_1
XFILLER_5_536 VPWR VGND sg13g2_decap_4
Xoutput7 net7 uio_out[0] VPWR VGND sg13g2_buf_1
XFILLER_49_713 VPWR VGND sg13g2_decap_8
XFILLER_0_241 VPWR VGND sg13g2_decap_8
X_6078__88 VPWR VGND net88 sg13g2_tiehi
XFILLER_36_418 VPWR VGND sg13g2_fill_2
XFILLER_44_440 VPWR VGND sg13g2_fill_2
XFILLER_17_665 VPWR VGND sg13g2_decap_8
XFILLER_45_996 VPWR VGND sg13g2_decap_8
XFILLER_31_145 VPWR VGND sg13g2_fill_1
XFILLER_8_330 VPWR VGND sg13g2_decap_4
XFILLER_9_875 VPWR VGND sg13g2_decap_4
X_4410_ _1337_ _1313_ _1335_ VPWR VGND sg13g2_xnor2_1
X_5390_ _2183_ _2185_ _2203_ _2204_ VPWR VGND sg13g2_or3_1
X_4341_ net472 VPWR _1281_ VGND net579 net895 sg13g2_o21ai_1
X_4272_ mydesign.pe_inputs\[44\] net539 mydesign.accum\[83\] _1215_ VPWR VGND sg13g2_a21o_1
XFILLER_28_1028 VPWR VGND sg13g2_fill_1
X_3223_ net1044 net842 _2647_ VPWR VGND sg13g2_and2_1
X_6011_ net46 VGND VPWR net893 mydesign.accum\[49\] clknet_leaf_29_clk sg13g2_dfrbpq_2
X_3154_ net555 net545 _2595_ VPWR VGND sg13g2_nor2b_2
XFILLER_48_790 VPWR VGND sg13g2_decap_8
X_6084__36 VPWR VGND net36 sg13g2_tiehi
XFILLER_27_418 VPWR VGND sg13g2_fill_2
X_3085_ VPWR _2526_ net939 VGND sg13g2_inv_1
XFILLER_36_930 VPWR VGND sg13g2_decap_8
XFILLER_35_462 VPWR VGND sg13g2_fill_1
XFILLER_35_473 VPWR VGND sg13g2_decap_8
X_3987_ VGND VPWR net564 _0961_ _0142_ _0962_ sg13g2_a21oi_1
XFILLER_10_307 VPWR VGND sg13g2_fill_2
X_5726_ _2491_ VPWR _0352_ VGND net604 _2490_ sg13g2_o21ai_1
X_5657_ _2431_ VPWR _2445_ VGND _2432_ _2433_ sg13g2_o21ai_1
XFILLER_11_1010 VPWR VGND sg13g2_decap_8
X_5588_ _2380_ _2375_ _2379_ VPWR VGND sg13g2_xnor2_1
XFILLER_2_506 VPWR VGND sg13g2_fill_2
X_4608_ VGND VPWR net574 _1513_ _0211_ _1514_ sg13g2_a21oi_1
Xhold341 mydesign.accum\[117\] VPWR VGND net960 sg13g2_dlygate4sd3_1
X_4539_ _1448_ _1441_ _1450_ VPWR VGND sg13g2_xor2_1
Xhold352 mydesign.pe_weights\[53\] VPWR VGND net971 sg13g2_dlygate4sd3_1
Xhold330 mydesign.accum\[41\] VPWR VGND net949 sg13g2_dlygate4sd3_1
Xhold385 mydesign.accum\[127\] VPWR VGND net1004 sg13g2_dlygate4sd3_1
Xhold363 _0182_ VPWR VGND net982 sg13g2_dlygate4sd3_1
Xhold396 mydesign.pe_inputs\[57\] VPWR VGND net1015 sg13g2_dlygate4sd3_1
Xhold374 mydesign.pe_inputs\[43\] VPWR VGND net993 sg13g2_dlygate4sd3_1
XFILLER_46_705 VPWR VGND sg13g2_decap_8
XFILLER_27_941 VPWR VGND sg13g2_decap_8
XFILLER_14_613 VPWR VGND sg13g2_decap_4
Xclkbuf_3_6__f_clk clknet_0_clk clknet_3_6__leaf_clk VPWR VGND sg13g2_buf_8
XFILLER_42_933 VPWR VGND sg13g2_decap_8
XFILLER_26_484 VPWR VGND sg13g2_fill_2
XFILLER_9_105 VPWR VGND sg13g2_decap_4
XFILLER_10_830 VPWR VGND sg13g2_fill_1
XFILLER_5_311 VPWR VGND sg13g2_fill_1
XFILLER_6_867 VPWR VGND sg13g2_decap_8
XFILLER_47_9 VPWR VGND sg13g2_fill_1
XFILLER_49_521 VPWR VGND sg13g2_decap_8
XFILLER_49_510 VPWR VGND sg13g2_fill_1
XFILLER_49_554 VPWR VGND sg13g2_decap_8
XFILLER_49_587 VPWR VGND sg13g2_decap_8
XFILLER_18_974 VPWR VGND sg13g2_decap_8
XFILLER_45_793 VPWR VGND sg13g2_decap_8
X_4890_ _1763_ VPWR _0244_ VGND net603 _1761_ sg13g2_o21ai_1
X_3910_ _0883_ _0897_ _0898_ VPWR VGND sg13g2_nor2_1
X_3841_ net465 VPWR _0833_ VGND net572 net1010 sg13g2_o21ai_1
XFILLER_32_443 VPWR VGND sg13g2_decap_8
XFILLER_33_966 VPWR VGND sg13g2_decap_8
X_3772_ _0774_ VPWR _0115_ VGND net597 _0769_ sg13g2_o21ai_1
X_5511_ _2311_ VPWR _2313_ VGND _2291_ _2293_ sg13g2_o21ai_1
X_5442_ _2248_ net588 net521 mydesign.pe_weights\[20\] VPWR VGND sg13g2_and3_1
X_5373_ VGND VPWR net590 _2186_ _0303_ _2187_ sg13g2_a21oi_1
X_4324_ net579 VPWR _1265_ VGND _1263_ _1264_ sg13g2_o21ai_1
X_6020__386 VPWR VGND net386 sg13g2_tiehi
X_4255_ _1195_ _1198_ _1199_ VPWR VGND sg13g2_nor2_1
X_4186_ _1143_ mydesign.accum\[93\] _1142_ VPWR VGND sg13g2_xnor2_1
XFILLER_41_1014 VPWR VGND sg13g2_decap_8
X_3206_ net616 _2633_ net692 _2636_ VPWR VGND sg13g2_nand3_1
X_3137_ VPWR _2578_ net808 VGND sg13g2_inv_1
XFILLER_42_229 VPWR VGND sg13g2_decap_8
X_6080__72 VPWR VGND net72 sg13g2_tiehi
X_5888__375 VPWR VGND net375 sg13g2_tiehi
XFILLER_24_988 VPWR VGND sg13g2_decap_8
XFILLER_10_137 VPWR VGND sg13g2_fill_1
X_5709_ mydesign.load_counter\[1\] _2605_ _2607_ _2483_ VPWR VGND sg13g2_nor3_1
XFILLER_3_837 VPWR VGND sg13g2_decap_4
Xhold160 mydesign.inputs\[1\]\[21\] VPWR VGND net779 sg13g2_dlygate4sd3_1
Xhold171 _0235_ VPWR VGND net790 sg13g2_dlygate4sd3_1
Xhold182 mydesign.inputs\[0\]\[19\] VPWR VGND net801 sg13g2_dlygate4sd3_1
Xhold193 _0217_ VPWR VGND net812 sg13g2_dlygate4sd3_1
X_5778__177 VPWR VGND net177 sg13g2_tiehi
Xfanout640 rst_n net640 VPWR VGND sg13g2_buf_8
XFILLER_46_568 VPWR VGND sg13g2_decap_4
XFILLER_18_259 VPWR VGND sg13g2_fill_1
XFILLER_27_771 VPWR VGND sg13g2_fill_1
XFILLER_15_944 VPWR VGND sg13g2_decap_8
XFILLER_42_774 VPWR VGND sg13g2_fill_1
XFILLER_42_752 VPWR VGND sg13g2_decap_8
X_6143__208 VPWR VGND net208 sg13g2_tiehi
XFILLER_18_1016 VPWR VGND sg13g2_decap_8
XFILLER_18_1027 VPWR VGND sg13g2_fill_2
XFILLER_26_292 VPWR VGND sg13g2_decap_4
XFILLER_41_284 VPWR VGND sg13g2_fill_1
XFILLER_30_969 VPWR VGND sg13g2_decap_8
XFILLER_2_870 VPWR VGND sg13g2_fill_1
XFILLER_49_340 VPWR VGND sg13g2_decap_8
X_4040_ _1012_ _1009_ _1013_ VPWR VGND sg13g2_xor2_1
X_5991_ net146 VGND VPWR net812 mydesign.pe_weights\[29\] clknet_leaf_8_clk sg13g2_dfrbpq_2
X_4942_ _1798_ mydesign.pe_weights\[37\] mydesign.pe_inputs\[25\] VPWR VGND sg13g2_nand2_1
X_4873_ VGND VPWR _1725_ _1733_ _1749_ _1732_ sg13g2_a21oi_1
XFILLER_21_925 VPWR VGND sg13g2_decap_8
X_3824_ net465 VPWR _0817_ VGND net572 net916 sg13g2_o21ai_1
X_3755_ _0761_ _0762_ _0110_ VPWR VGND sg13g2_nor2_1
X_3686_ VGND VPWR _0694_ _0695_ _0697_ _0674_ sg13g2_a21oi_1
X_5425_ net482 VPWR _2237_ VGND net590 net915 sg13g2_o21ai_1
X_5356_ _2171_ mydesign.pe_inputs\[13\] mydesign.pe_weights\[26\] VPWR VGND sg13g2_nand2_1
X_4307_ net471 VPWR _1249_ VGND net579 net933 sg13g2_o21ai_1
X_5287_ VPWR _2115_ _2114_ VGND sg13g2_inv_1
X_4238_ VGND VPWR net739 _1182_ _0172_ _1183_ sg13g2_a21oi_1
Xheichips25_systolicArrayTop_404 VPWR VGND uio_oe[5] sg13g2_tiehi
X_4169_ _1125_ _1123_ _1127_ VPWR VGND sg13g2_xor2_1
X_5931__295 VPWR VGND net295 sg13g2_tiehi
XFILLER_23_273 VPWR VGND sg13g2_fill_1
XFILLER_23_87 VPWR VGND sg13g2_fill_2
XFILLER_3_678 VPWR VGND sg13g2_fill_1
Xfanout492 net494 net492 VPWR VGND sg13g2_buf_8
Xfanout470 net472 net470 VPWR VGND sg13g2_buf_8
Xfanout481 net482 net481 VPWR VGND sg13g2_buf_8
XFILLER_47_866 VPWR VGND sg13g2_decap_8
XFILLER_34_505 VPWR VGND sg13g2_fill_1
XFILLER_42_593 VPWR VGND sg13g2_fill_1
XFILLER_9_56 VPWR VGND sg13g2_fill_2
X_5982__193 VPWR VGND net193 sg13g2_tiehi
XFILLER_31_1013 VPWR VGND sg13g2_decap_8
X_3540_ _0567_ _0558_ _0565_ VPWR VGND sg13g2_xnor2_1
XFILLER_7_995 VPWR VGND sg13g2_decap_8
X_3471_ VGND VPWR _2586_ _0506_ _0507_ net484 sg13g2_a21oi_1
X_5210_ _2042_ _2041_ _2025_ VPWR VGND sg13g2_nand2b_1
X_5141_ mydesign.pe_weights\[35\] mydesign.pe_inputs\[23\] mydesign.accum\[38\] _1981_
+ VPWR VGND sg13g2_nand3_1
X_5072_ _1916_ _1906_ _1915_ VPWR VGND sg13g2_xnor2_1
XFILLER_38_811 VPWR VGND sg13g2_fill_2
XFILLER_38_800 VPWR VGND sg13g2_decap_8
X_4023_ _0996_ _0988_ _0997_ VPWR VGND sg13g2_xor2_1
XFILLER_49_170 VPWR VGND sg13g2_decap_8
XFILLER_38_855 VPWR VGND sg13g2_decap_4
XFILLER_37_310 VPWR VGND sg13g2_fill_1
XFILLER_38_888 VPWR VGND sg13g2_decap_8
X_5974_ net209 VGND VPWR net1034 mydesign.pe_weights\[32\] clknet_leaf_38_clk sg13g2_dfrbpq_2
XFILLER_40_519 VPWR VGND sg13g2_decap_8
X_4925_ net638 VPWR _1784_ VGND net1025 net449 sg13g2_o21ai_1
X_4856_ _1710_ _1731_ _1707_ _1733_ VPWR VGND sg13g2_nand3_1
XFILLER_20_221 VPWR VGND sg13g2_decap_4
XFILLER_21_744 VPWR VGND sg13g2_fill_1
X_3807_ mydesign.weights\[2\]\[15\] net550 _0802_ VPWR VGND sg13g2_nor2b_1
XFILLER_21_799 VPWR VGND sg13g2_fill_1
X_4787_ VGND VPWR net583 _1666_ _0237_ _1667_ sg13g2_a21oi_1
X_3738_ VGND VPWR net577 _0745_ _0109_ _0746_ sg13g2_a21oi_1
X_3669_ _0673_ _0680_ _0681_ VPWR VGND sg13g2_nor2b_1
XFILLER_47_1020 VPWR VGND sg13g2_decap_8
X_5408_ _2219_ _2198_ _2221_ VPWR VGND sg13g2_xor2_1
X_5339_ mydesign.pe_weights\[26\] net522 mydesign.accum\[18\] _2155_ VPWR VGND sg13g2_a21o_1
XFILLER_48_608 VPWR VGND sg13g2_decap_8
XFILLER_47_107 VPWR VGND sg13g2_fill_2
XFILLER_29_899 VPWR VGND sg13g2_decap_4
XFILLER_16_527 VPWR VGND sg13g2_fill_2
XFILLER_44_869 VPWR VGND sg13g2_decap_8
XFILLER_34_42 VPWR VGND sg13g2_decap_8
X_6066__194 VPWR VGND net194 sg13g2_tiehi
XFILLER_34_75 VPWR VGND sg13g2_fill_2
XFILLER_7_203 VPWR VGND sg13g2_fill_2
XFILLER_4_976 VPWR VGND sg13g2_decap_8
X_6114__140 VPWR VGND net140 sg13g2_tiehi
XFILLER_22_8 VPWR VGND sg13g2_decap_8
XFILLER_38_129 VPWR VGND sg13g2_fill_2
XFILLER_47_663 VPWR VGND sg13g2_decap_8
XFILLER_34_313 VPWR VGND sg13g2_fill_1
XFILLER_22_519 VPWR VGND sg13g2_fill_2
X_5690_ _2466_ net834 _2470_ _0337_ VPWR VGND sg13g2_a21o_1
X_4710_ _1595_ _1603_ _1604_ VPWR VGND sg13g2_nor2_1
X_6045__278 VPWR VGND net278 sg13g2_tiehi
X_4641_ net625 VPWR _1541_ VGND mydesign.pe_weights\[30\] net437 sg13g2_o21ai_1
X_4572_ mydesign.pe_inputs\[38\] net537 mydesign.accum\[69\] _1481_ VPWR VGND sg13g2_a21o_1
XFILLER_6_280 VPWR VGND sg13g2_fill_1
X_3523_ _0551_ _0534_ _0550_ VPWR VGND sg13g2_nand2_1
X_3454_ _0495_ net425 _0493_ VPWR VGND sg13g2_nand2_1
XFILLER_41_0 VPWR VGND sg13g2_decap_8
X_3385_ net517 mydesign.accum\[34\] _0433_ VPWR VGND sg13g2_nor2b_1
X_5124_ net530 mydesign.pe_inputs\[23\] mydesign.accum\[37\] _1965_ VPWR VGND sg13g2_nand3_1
X_5055_ _1898_ VPWR _1900_ VGND _1896_ _1897_ sg13g2_o21ai_1
Xclkbuf_leaf_49_clk clknet_3_0__leaf_clk clknet_leaf_49_clk VPWR VGND sg13g2_buf_8
X_5891__371 VPWR VGND net371 sg13g2_tiehi
X_4006_ VGND VPWR _0978_ _0979_ _0981_ _0966_ sg13g2_a21oi_1
XFILLER_37_184 VPWR VGND sg13g2_fill_1
XFILLER_25_346 VPWR VGND sg13g2_fill_2
X_5957_ net243 VGND VPWR net994 mydesign.pe_inputs\[39\] clknet_leaf_40_clk sg13g2_dfrbpq_2
XFILLER_13_519 VPWR VGND sg13g2_fill_1
XFILLER_25_368 VPWR VGND sg13g2_fill_2
XFILLER_25_379 VPWR VGND sg13g2_fill_1
X_4908_ _1775_ net4 _1768_ VPWR VGND sg13g2_nand2_1
X_5888_ net375 VGND VPWR net702 mydesign.weights\[3\]\[6\] clknet_leaf_49_clk sg13g2_dfrbpq_1
XFILLER_21_585 VPWR VGND sg13g2_fill_1
X_4839_ _1715_ _1716_ _1717_ VPWR VGND sg13g2_and2_1
X_5781__173 VPWR VGND net173 sg13g2_tiehi
XFILLER_0_423 VPWR VGND sg13g2_decap_8
XFILLER_0_445 VPWR VGND sg13g2_decap_8
XFILLER_1_957 VPWR VGND sg13g2_decap_8
Xhold31 mydesign.inputs\[3\]\[10\] VPWR VGND net650 sg13g2_dlygate4sd3_1
Xhold20 _0077_ VPWR VGND net426 sg13g2_dlygate4sd3_1
Xhold53 mydesign.weights\[3\]\[5\] VPWR VGND net672 sg13g2_dlygate4sd3_1
Xhold42 _0293_ VPWR VGND net661 sg13g2_dlygate4sd3_1
Xhold64 mydesign.weights\[1\]\[16\] VPWR VGND net683 sg13g2_dlygate4sd3_1
Xhold86 mydesign.weights\[3\]\[2\] VPWR VGND net705 sg13g2_dlygate4sd3_1
Xhold75 mydesign.weights\[0\]\[22\] VPWR VGND net694 sg13g2_dlygate4sd3_1
Xhold97 mydesign.weights\[0\]\[25\] VPWR VGND net716 sg13g2_dlygate4sd3_1
XFILLER_21_1023 VPWR VGND sg13g2_decap_4
X_5852__67 VPWR VGND net67 sg13g2_tiehi
XFILLER_44_666 VPWR VGND sg13g2_decap_8
XFILLER_43_132 VPWR VGND sg13g2_decap_8
XFILLER_43_187 VPWR VGND sg13g2_decap_8
XFILLER_40_861 VPWR VGND sg13g2_decap_8
XFILLER_8_534 VPWR VGND sg13g2_fill_2
X_3170_ _2610_ net747 net618 VPWR VGND sg13g2_nand2_1
XFILLER_6_1028 VPWR VGND sg13g2_fill_1
XFILLER_48_972 VPWR VGND sg13g2_decap_8
XFILLER_47_493 VPWR VGND sg13g2_fill_1
XFILLER_19_184 VPWR VGND sg13g2_fill_1
XFILLER_22_305 VPWR VGND sg13g2_fill_1
X_5811_ net131 VGND VPWR _0037_ mydesign.inputs\[1\]\[16\] clknet_leaf_13_clk sg13g2_dfrbpq_1
X_5742_ net462 VPWR _2500_ VGND net608 _2663_ sg13g2_o21ai_1
X_5673_ net473 VPWR _2460_ VGND net409 _2459_ sg13g2_o21ai_1
XFILLER_31_894 VPWR VGND sg13g2_decap_8
X_4624_ VGND VPWR _2546_ net492 _0213_ _1528_ sg13g2_a21oi_1
X_4555_ _1464_ _1461_ _1465_ VPWR VGND sg13g2_xor2_1
X_3506_ _0533_ _0532_ _0535_ VPWR VGND sg13g2_xor2_1
X_4486_ _1405_ VPWR _0198_ VGND net599 _1401_ sg13g2_o21ai_1
X_3437_ net515 mydesign.accum\[111\] mydesign.accum\[79\] mydesign.accum\[47\] mydesign.accum\[15\]
+ net508 _0480_ VPWR VGND sg13g2_mux4_1
XFILLER_44_1023 VPWR VGND sg13g2_decap_4
X_3368_ VGND VPWR _0415_ _0416_ _0068_ _0417_ sg13g2_a21oi_1
X_5107_ _1947_ _1944_ _1949_ VPWR VGND sg13g2_xor2_1
X_3299_ _2632_ net605 net608 _2691_ VPWR VGND sg13g2_a21o_2
X_6087_ net388 VGND VPWR net929 mydesign.accum\[9\] clknet_leaf_34_clk sg13g2_dfrbpq_2
XFILLER_26_611 VPWR VGND sg13g2_decap_4
X_5038_ net480 VPWR _1889_ VGND net583 net980 sg13g2_o21ai_1
XFILLER_41_636 VPWR VGND sg13g2_decap_8
XFILLER_21_371 VPWR VGND sg13g2_fill_2
XFILLER_21_382 VPWR VGND sg13g2_fill_1
XFILLER_31_76 VPWR VGND sg13g2_fill_1
Xoutput10 net10 uo_out[2] VPWR VGND sg13g2_buf_1
Xoutput8 net8 uo_out[0] VPWR VGND sg13g2_buf_1
XFILLER_1_743 VPWR VGND sg13g2_fill_2
XFILLER_0_275 VPWR VGND sg13g2_fill_1
XFILLER_49_769 VPWR VGND sg13g2_decap_8
XFILLER_16_132 VPWR VGND sg13g2_decap_8
XFILLER_45_975 VPWR VGND sg13g2_decap_8
XFILLER_16_165 VPWR VGND sg13g2_decap_4
X_4340_ _1280_ _1279_ _1278_ VPWR VGND sg13g2_nand2b_1
X_4271_ net539 net536 mydesign.accum\[83\] _1214_ VPWR VGND sg13g2_nand3_1
X_3222_ _2646_ VPWR _0016_ VGND net598 _2641_ sg13g2_o21ai_1
X_6010_ net50 VGND VPWR net746 mydesign.accum\[48\] clknet_leaf_29_clk sg13g2_dfrbpq_2
X_3153_ VPWR _2594_ mydesign.inputs\[2\]\[7\] VGND sg13g2_inv_1
XFILLER_39_246 VPWR VGND sg13g2_fill_2
X_3084_ VPWR _2525_ net1000 VGND sg13g2_inv_1
XFILLER_36_986 VPWR VGND sg13g2_decap_8
XFILLER_23_625 VPWR VGND sg13g2_fill_1
X_3986_ net464 VPWR _0962_ VGND net565 net847 sg13g2_o21ai_1
X_5725_ net723 _2490_ net615 _2491_ VPWR VGND sg13g2_nand3_1
X_5656_ _2435_ VPWR _2444_ VGND _2429_ _2436_ sg13g2_o21ai_1
X_4607_ net473 VPWR _1514_ VGND net574 net843 sg13g2_o21ai_1
X_5587_ _2376_ _2378_ _2379_ VPWR VGND sg13g2_nor2_1
Xhold320 mydesign.pe_inputs\[14\] VPWR VGND net939 sg13g2_dlygate4sd3_1
Xhold342 mydesign.accum\[82\] VPWR VGND net961 sg13g2_dlygate4sd3_1
Xhold353 mydesign.accum\[116\] VPWR VGND net972 sg13g2_dlygate4sd3_1
X_4538_ _1441_ _1448_ _1449_ VPWR VGND sg13g2_nor2_1
Xhold331 _0261_ VPWR VGND net950 sg13g2_dlygate4sd3_1